Version 4
SHEET 1 1456 680
WIRE 1024 0 1024 -32
WIRE 1216 0 1024 0
WIRE 1024 16 1024 0
WIRE 304 96 -112 96
WIRE 384 96 304 96
WIRE 512 96 448 96
WIRE 560 96 512 96
WIRE 688 96 624 96
WIRE 736 96 736 48
WIRE 736 96 688 96
WIRE 784 96 736 96
WIRE 960 96 784 96
WIRE 976 96 960 96
WIRE 688 112 688 96
WIRE 784 112 784 96
WIRE 960 112 960 96
WIRE -112 128 -112 96
WIRE 304 128 304 96
WIRE 512 128 512 96
WIRE 1024 128 1024 112
WIRE 784 192 784 176
WIRE 960 192 960 176
WIRE 512 208 512 192
FLAG -112 208 0
FLAG 304 208 0
FLAG 512 208 0
FLAG 688 192 0
FLAG 784 192 0
FLAG -384 192 0
FLAG -384 112 12V
IOPIN -384 112 Out
FLAG 1024 128 0
FLAG 1024 -112 12V
IOPIN 1024 -112 In
FLAG 1216 0 SW
IOPIN 1216 0 Out
FLAG 736 48 Vgate
FLAG 960 192 0
SYMBOL voltage -112 112 R0
WINDOW 123 0 0 Left 0
WINDOW 39 24 124 Left 2
SYMATTR InstName V1
SYMATTR Value SINE(0 64 150Meg 200n 0 0 180)
SYMATTR SpiceLine Rser=50
SYMBOL res 288 112 R0
SYMATTR InstName R1
SYMATTR Value 50
SYMBOL cap 448 80 R90
WINDOW 0 0 32 VBottom 2
WINDOW 3 32 32 VTop 2
SYMATTR InstName C1
SYMATTR Value 4.7p
SYMBOL res 672 96 R0
SYMATTR InstName R3
SYMATTR Value 330
SYMBOL cap 768 112 R0
SYMATTR InstName C2
SYMATTR Value 1n
SYMBOL voltage -384 96 R0
WINDOW 123 0 0 Left 0
WINDOW 39 0 0 Left 0
SYMATTR InstName V2
SYMATTR Value 12
SYMBOL nmos 976 16 R0
SYMATTR InstName M1
SYMATTR Value BS170
SYMBOL res 1008 -128 R0
SYMATTR InstName R2
SYMATTR Value 4.7k
SYMBOL schottky 560 112 R270
WINDOW 0 32 32 VTop 2
WINDOW 3 0 32 VBottom 2
SYMATTR InstName D1
SYMATTR Value BAS40-04HM
SYMATTR Description Diode
SYMATTR Type diode
SYMBOL schottky 528 192 R180
WINDOW 0 24 64 Left 2
WINDOW 3 24 0 Left 2
SYMATTR InstName D2
SYMATTR Value BAS40-04HM
SYMATTR Description Diode
SYMATTR Type diode
SYMBOL zener 976 176 R180
WINDOW 0 24 64 Left 2
WINDOW 3 24 0 Left 2
SYMATTR InstName D3
SYMATTR Value BZX84C12L
SYMATTR Description Diode
SYMATTR Type diode
TEXT -90 -112 Left 2 !.tran 3u
TEXT -584 -232 Left 2 !.model BS170 VDMOS VTO=1.824 RG=270 RS=1.572 RD=1.436 RB=.768 KP=.1233 Cgdmax=20p Cgdmin=3p CGS=28p Cjo=35p Rds=1.2E8 IS=5p Bv=60 Ibv=10u Tt=161.6n
